data_Fe8
_symmetry_space_group_name_H-M   "P 1"
_cell_length_a   10.0000
_cell_length_b   10.0000
_cell_length_c   10.0000
_cell_angle_alpha   90.0000
_cell_angle_beta   90.0000
_cell_angle_gamma   90.0000
loop_
 _atom_site_type_symbol
 _atom_site_label
 _atom_site_fract_x
 _atom_site_fract_y
 _atom_site_fract_z
 Fe  Fe1  0.10000  0.10000  0.10000
 Fe  Fe2  0.12000  0.12000  0.12000
 Fe  Fe3  0.50000  0.50000  0.50000
 Fe  Fe4  0.52000  0.52000  0.52000
 Fe  Fe5  0.90000  0.90000  0.90000
 Fe  Fe6  0.92000  0.92000  0.92000
 Fe  Fe7  0.30000  0.30000  0.30000
 Fe  Fe8  0.70000  0.70000  0.70000
